data/nesta_case118_ieee__sad.m
%%%%%%%%%%%%%%%%%%%%%%%%%%%%%%%%%%%%%%%%%%%%%%%%%%%%%%%%%%%%%%%%%%%%%%%%%%%
%%%%                                                                  %%%%%
%%%%      NICTA Energy System Test Case Archive (NESTA) - v0.6.0      %%%%%
%%%%           Optimal Power Flow - Small Angle Difference            %%%%%
%%%%                       02 - January - 2016                        %%%%%
%%%%                                                                  %%%%%
%%%%%%%%%%%%%%%%%%%%%%%%%%%%%%%%%%%%%%%%%%%%%%%%%%%%%%%%%%%%%%%%%%%%%%%%%%%
function mpc = nesta_case118_ieee__sad
mpc.version = '2';
mpc.baseMVA = 100.0;

%% bus data
%	bus_i	type	Pd	Qd	Gs	Bs	area	Vm	Va	baseKV	zone	Vmax	Vmin
mpc.bus = [
	1	 2	 51.0	 27.0	 0.0	 0.0	 1	    1.03461	   -4.68943	 138.0	 1	    1.06000	    0.94000;
	2	 1	 20.0	 9.0	 0.0	 0.0	 1	    1.04546	   -3.77797	 138.0	 1	    1.06000	    0.94000;
	3	 1	 39.0	 10.0	 0.0	 0.0	 1	    1.04061	   -3.99621	 138.0	 1	    1.06000	    0.94000;
	4	 2	 39.0	 12.0	 0.0	 0.0	 1	    1.06000	   -1.43251	 138.0	 1	    1.06000	    0.94000;
	5	 1	 0.0	 0.0	 0.0	 -40.0	 1	    1.05828	   -1.06106	 138.0	 1	    1.06000	    0.94000;
	6	 2	 52.0	 22.0	 0.0	 0.0	 1	    1.06000	   -2.79707	 138.0	 1	    1.06000	    0.94000;
	7	 1	 19.0	 2.0	 0.0	 0.0	 1	    1.05929	   -2.86771	 138.0	 1	    1.06000	    0.94000;
	8	 2	 28.0	 0.0	 0.0	 0.0	 1	    1.04093	    2.33194	 345.0	 1	    1.06000	    0.94000;
	9	 1	 0.0	 0.0	 0.0	 0.0	 1	    1.06000	   10.03518	 345.0	 1	    1.06000	    0.94000;
	10	 2	 0.0	 0.0	 0.0	 0.0	 1	    1.06000	   18.20172	 345.0	 1	    1.06000	    0.94000;
	11	 1	 70.0	 23.0	 0.0	 0.0	 1	    1.05213	   -2.95841	 138.0	 1	    1.06000	    0.94000;
	12	 2	 47.0	 10.0	 0.0	 0.0	 1	    1.06000	   -2.65772	 138.0	 1	    1.06000	    0.94000;
	13	 1	 34.0	 16.0	 0.0	 0.0	 1	    1.03809	   -5.37967	 138.0	 1	    1.06000	    0.94000;
	14	 1	 14.0	 1.0	 0.0	 0.0	 1	    1.05480	   -4.88108	 138.0	 1	    1.06000	    0.94000;
	15	 2	 90.0	 30.0	 0.0	 0.0	 1	    1.04879	   -9.58352	 138.0	 1	    1.06000	    0.94000;
	16	 1	 25.0	 10.0	 0.0	 0.0	 1	    1.05219	   -4.93299	 138.0	 1	    1.06000	    0.94000;
	17	 1	 11.0	 3.0	 0.0	 0.0	 1	    1.06000	   -7.67769	 138.0	 1	    1.06000	    0.94000;
	18	 2	 60.0	 34.0	 0.0	 0.0	 1	    1.05414	   -9.91612	 138.0	 1	    1.06000	    0.94000;
	19	 2	 45.0	 25.0	 0.0	 0.0	 1	    1.04817	  -10.48667	 138.0	 1	    1.06000	    0.94000;
	20	 1	 18.0	 3.0	 0.0	 0.0	 1	    1.03634	  -10.92499	 138.0	 1	    1.06000	    0.94000;
	21	 1	 14.0	 8.0	 0.0	 0.0	 1	    1.03120	  -10.43127	 138.0	 1	    1.06000	    0.94000;
	22	 1	 10.0	 5.0	 0.0	 0.0	 1	    1.03365	   -9.19792	 138.0	 1	    1.06000	    0.94000;
	23	 1	 7.0	 3.0	 0.0	 0.0	 1	    1.04498	   -6.38636	 138.0	 1	    1.06000	    0.94000;
	24	 2	 13.0	 0.0	 0.0	 0.0	 1	    1.06000	   -7.13247	 138.0	 1	    1.06000	    0.94000;
	25	 2	 0.0	 0.0	 0.0	 0.0	 1	    1.06000	   -1.14523	 138.0	 1	    1.06000	    0.94000;
	26	 2	 0.0	 0.0	 0.0	 0.0	 1	    1.05443	    3.11013	 345.0	 1	    1.06000	    0.94000;
	27	 2	 71.0	 13.0	 0.0	 0.0	 1	    0.94000	   -9.31177	 138.0	 1	    1.06000	    0.94000;
	28	 1	 17.0	 7.0	 0.0	 0.0	 1	    0.95098	  -10.34785	 138.0	 1	    1.06000	    0.94000;
	29	 1	 24.0	 4.0	 0.0	 0.0	 1	    0.97198	  -10.55743	 138.0	 1	    1.06000	    0.94000;
	30	 1	 0.0	 0.0	 0.0	 0.0	 1	    1.03423	   -3.25572	 345.0	 1	    1.06000	    0.94000;
	31	 2	 43.0	 27.0	 0.0	 0.0	 1	    0.98293	  -10.19979	 138.0	 1	    1.06000	    0.94000;
	32	 2	 59.0	 23.0	 0.0	 0.0	 1	    0.98462	   -9.86387	 138.0	 1	    1.06000	    0.94000;
	33	 1	 23.0	 9.0	 0.0	 0.0	 1	    1.04597	  -11.30228	 138.0	 1	    1.06000	    0.94000;
	34	 2	 59.0	 26.0	 0.0	 14.0	 1	    1.05818	  -12.12041	 138.0	 1	    1.06000	    0.94000;
	35	 1	 33.0	 9.0	 0.0	 0.0	 1	    1.05496	  -12.51506	 138.0	 1	    1.06000	    0.94000;
	36	 2	 31.0	 17.0	 0.0	 0.0	 1	    1.05544	  -12.52692	 138.0	 1	    1.06000	    0.94000;
	37	 1	 0.0	 0.0	 0.0	 -25.0	 1	    1.06000	  -11.66261	 138.0	 1	    1.06000	    0.94000;
	38	 1	 0.0	 0.0	 0.0	 0.0	 1	    1.01448	   -6.74045	 345.0	 1	    1.06000	    0.94000;
	39	 1	 27.0	 11.0	 0.0	 0.0	 1	    1.02200	  -15.49329	 138.0	 1	    1.06000	    0.94000;
	40	 2	 66.0	 23.0	 0.0	 0.0	 1	    1.01199	  -16.96585	 138.0	 1	    1.06000	    0.94000;
	41	 1	 37.0	 10.0	 0.0	 0.0	 1	    0.98600	  -17.53818	 138.0	 1	    1.06000	    0.94000;
	42	 2	 96.0	 23.0	 0.0	 0.0	 1	    0.94000	  -16.33308	 138.0	 1	    1.06000	    0.94000;
	43	 1	 18.0	 7.0	 0.0	 0.0	 1	    1.04651	  -13.37799	 138.0	 1	    1.06000	    0.94000;
	44	 1	 16.0	 8.0	 0.0	 10.0	 1	    1.04346	  -12.96449	 138.0	 1	    1.06000	    0.94000;
	45	 1	 53.0	 22.0	 0.0	 10.0	 1	    1.03955	  -11.96238	 138.0	 1	    1.06000	    0.94000;
	46	 2	 28.0	 10.0	 0.0	 10.0	 1	    1.06000	   -9.53631	 138.0	 1	    1.06000	    0.94000;
	47	 1	 34.0	 0.0	 0.0	 0.0	 1	    1.05248	   -8.16654	 138.0	 1	    1.06000	    0.94000;
	48	 1	 20.0	 11.0	 0.0	 15.0	 1	    1.05421	   -8.93728	 138.0	 1	    1.06000	    0.94000;
	49	 2	 87.0	 30.0	 0.0	 0.0	 1	    1.05194	   -8.16654	 138.0	 1	    1.06000	    0.94000;
	50	 1	 17.0	 4.0	 0.0	 0.0	 1	    1.04182	  -10.05610	 138.0	 1	    1.06000	    0.94000;
	51	 1	 17.0	 8.0	 0.0	 0.0	 1	    1.02585	  -12.39067	 138.0	 1	    1.06000	    0.94000;
	52	 1	 18.0	 5.0	 0.0	 0.0	 1	    1.02087	  -13.22461	 138.0	 1	    1.06000	    0.94000;
	53	 1	 23.0	 11.0	 0.0	 0.0	 1	    1.02205	  -13.98006	 138.0	 1	    1.06000	    0.94000;
	54	 2	 113.0	 32.0	 0.0	 0.0	 1	    1.03800	  -13.11638	 138.0	 1	    1.06000	    0.94000;
	55	 2	 63.0	 22.0	 0.0	 0.0	 1	    1.03365	  -13.49631	 138.0	 1	    1.06000	    0.94000;
	56	 2	 84.0	 18.0	 0.0	 0.0	 1	    1.03456	  -13.30265	 138.0	 1	    1.06000	    0.94000;
	57	 1	 12.0	 3.0	 0.0	 0.0	 1	    1.03493	  -12.29728	 138.0	 1	    1.06000	    0.94000;
	58	 1	 12.0	 3.0	 0.0	 0.0	 1	    1.02750	  -13.04338	 138.0	 1	    1.06000	    0.94000;
	59	 2	 277.0	 113.0	 0.0	 0.0	 1	    1.03271	   -9.99175	 138.0	 1	    1.06000	    0.94000;
	60	 1	 78.0	 3.0	 0.0	 0.0	 1	    1.00795	   -3.83475	 138.0	 1	    1.06000	    0.94000;
	61	 2	 0.0	 0.0	 0.0	 0.0	 1	    1.00831	   -2.74355	 138.0	 1	    1.06000	    0.94000;
	62	 2	 77.0	 14.0	 0.0	 0.0	 1	    1.00747	   -3.48267	 138.0	 1	    1.06000	    0.94000;
	63	 1	 0.0	 0.0	 0.0	 0.0	 1	    0.99628	   -5.29413	 345.0	 1	    1.06000	    0.94000;
	64	 1	 0.0	 0.0	 0.0	 0.0	 1	    1.00370	   -2.69949	 345.0	 1	    1.06000	    0.94000;
	65	 2	 0.0	 0.0	 0.0	 0.0	 1	    1.02221	    1.15319	 345.0	 1	    1.06000	    0.94000;
	66	 2	 39.0	 18.0	 0.0	 0.0	 1	    1.06000	   -0.00000	 138.0	 1	    1.06000	    0.94000;
	67	 1	 28.0	 7.0	 0.0	 0.0	 1	    1.02968	   -2.36643	 138.0	 1	    1.06000	    0.94000;
	68	 1	 0.0	 0.0	 0.0	 0.0	 1	    1.03793	   -0.37718	 345.0	 1	    1.06000	    0.94000;
	69	 3	 0.0	 0.0	 0.0	 0.0	 1	    1.06000	    0.00000	 138.0	 1	    1.06000	    0.94000;
	70	 2	 66.0	 20.0	 0.0	 0.0	 1	    1.00981	   -6.66258	 138.0	 1	    1.06000	    0.94000;
	71	 1	 0.0	 0.0	 0.0	 0.0	 1	    1.01079	   -6.89182	 138.0	 1	    1.06000	    0.94000;
	72	 2	 12.0	 0.0	 0.0	 0.0	 1	    1.03266	   -7.62807	 138.0	 1	    1.06000	    0.94000;
	73	 2	 6.0	 0.0	 0.0	 0.0	 1	    1.00522	   -6.99083	 138.0	 1	    1.06000	    0.94000;
	74	 2	 68.0	 27.0	 0.0	 12.0	 1	    0.99365	   -7.92796	 138.0	 1	    1.06000	    0.94000;
	75	 1	 47.0	 11.0	 0.0	 0.0	 1	    0.99902	   -6.75512	 138.0	 1	    1.06000	    0.94000;
	76	 2	 68.0	 36.0	 0.0	 0.0	 1	    0.98056	   -8.06925	 138.0	 1	    1.06000	    0.94000;
	77	 2	 61.0	 28.0	 0.0	 0.0	 1	    1.02127	   -3.28408	 138.0	 1	    1.06000	    0.94000;
	78	 1	 71.0	 26.0	 0.0	 0.0	 1	    1.01570	   -3.48897	 138.0	 1	    1.06000	    0.94000;
	79	 1	 39.0	 32.0	 0.0	 20.0	 1	    1.01537	   -3.04395	 138.0	 1	    1.06000	    0.94000;
	80	 2	 130.0	 26.0	 0.0	 0.0	 1	    1.02859	   -0.35586	 138.0	 1	    1.06000	    0.94000;
	81	 1	 0.0	 0.0	 0.0	 0.0	 1	    1.01370	   -0.29610	 345.0	 1	    1.06000	    0.94000;
	82	 1	 54.0	 27.0	 0.0	 20.0	 1	    1.01636	   -4.50047	 138.0	 1	    1.06000	    0.94000;
	83	 1	 20.0	 10.0	 0.0	 10.0	 1	    1.02212	   -4.04250	 138.0	 1	    1.06000	    0.94000;
	84	 1	 11.0	 7.0	 0.0	 0.0	 1	    1.03060	   -2.77970	 138.0	 1	    1.06000	    0.94000;
	85	 2	 24.0	 15.0	 0.0	 0.0	 1	    1.04126	   -1.88165	 138.0	 1	    1.06000	    0.94000;
	86	 1	 21.0	 10.0	 0.0	 0.0	 1	    1.03410	   -3.26087	 138.0	 1	    1.06000	    0.94000;
	87	 2	 0.0	 0.0	 0.0	 0.0	 1	    1.04686	   -3.35725	 161.0	 1	    1.06000	    0.94000;
	88	 1	 48.0	 10.0	 0.0	 0.0	 1	    1.04422	    0.37334	 138.0	 1	    1.06000	    0.94000;
	89	 2	 0.0	 0.0	 0.0	 0.0	 1	    1.06000	    3.63639	 138.0	 1	    1.06000	    0.94000;
	90	 2	 163.0	 42.0	 0.0	 0.0	 1	    1.05198	   -2.12940	 138.0	 1	    1.06000	    0.94000;
	91	 2	 10.0	 0.0	 0.0	 0.0	 1	    1.04655	   -2.02478	 138.0	 1	    1.06000	    0.94000;
	92	 2	 65.0	 10.0	 0.0	 0.0	 1	    1.04185	   -1.19135	 138.0	 1	    1.06000	    0.94000;
	93	 1	 12.0	 7.0	 0.0	 0.0	 1	    1.02572	   -3.28024	 138.0	 1	    1.06000	    0.94000;
	94	 1	 30.0	 16.0	 0.0	 0.0	 1	    1.01878	   -4.70181	 138.0	 1	    1.06000	    0.94000;
	95	 1	 42.0	 31.0	 0.0	 0.0	 1	    1.00591	   -4.97562	 138.0	 1	    1.06000	    0.94000;
	96	 1	 38.0	 15.0	 0.0	 0.0	 1	    1.01296	   -4.31002	 138.0	 1	    1.06000	    0.94000;
	97	 1	 15.0	 9.0	 0.0	 0.0	 1	    1.01573	   -2.71634	 138.0	 1	    1.06000	    0.94000;
	98	 1	 34.0	 8.0	 0.0	 0.0	 1	    1.02272	   -3.75711	 138.0	 1	    1.06000	    0.94000;
	99	 2	 42.0	 0.0	 0.0	 0.0	 1	    1.02883	   -5.84652	 138.0	 1	    1.06000	    0.94000;
	100	 2	 37.0	 18.0	 0.0	 0.0	 1	    1.03698	   -6.14549	 138.0	 1	    1.06000	    0.94000;
	101	 1	 22.0	 15.0	 0.0	 0.0	 1	    1.02602	   -4.83003	 138.0	 1	    1.06000	    0.94000;
	102	 1	 5.0	 3.0	 0.0	 0.0	 1	    1.03548	   -2.48704	 138.0	 1	    1.06000	    0.94000;
	103	 2	 23.0	 16.0	 0.0	 0.0	 1	    1.03440	   -9.09147	 138.0	 1	    1.06000	    0.94000;
	104	 2	 38.0	 25.0	 0.0	 0.0	 1	    1.02039	  -12.47386	 138.0	 1	    1.06000	    0.94000;
	105	 2	 31.0	 26.0	 0.0	 20.0	 1	    1.01780	  -13.67874	 138.0	 1	    1.06000	    0.94000;
	106	 1	 43.0	 16.0	 0.0	 0.0	 1	    1.00962	  -13.81940	 138.0	 1	    1.06000	    0.94000;
	107	 2	 50.0	 12.0	 0.0	 6.0	 1	    1.00581	  -16.42510	 138.0	 1	    1.06000	    0.94000;
	108	 1	 2.0	 1.0	 0.0	 0.0	 1	    1.01122	  -15.27551	 138.0	 1	    1.06000	    0.94000;
	109	 1	 8.0	 3.0	 0.0	 0.0	 1	    1.00893	  -15.90050	 138.0	 1	    1.06000	    0.94000;
	110	 2	 39.0	 30.0	 0.0	 6.0	 1	    1.00671	  -17.24248	 138.0	 1	    1.06000	    0.94000;
	111	 2	 0.0	 0.0	 0.0	 0.0	 1	    1.01025	  -17.30132	 138.0	 1	    1.06000	    0.94000;
	112	 2	 68.0	 13.0	 0.0	 0.0	 1	    0.99334	  -19.83740	 138.0	 1	    1.06000	    0.94000;
	113	 2	 6.0	 0.0	 0.0	 0.0	 1	    1.05863	   -8.17061	 138.0	 1	    1.06000	    0.94000;
	114	 1	 8.0	 3.0	 0.0	 0.0	 1	    0.96086	  -10.20254	 138.0	 1	    1.06000	    0.94000;
	115	 1	 22.0	 7.0	 0.0	 0.0	 1	    0.95725	  -10.21286	 138.0	 1	    1.06000	    0.94000;
	116	 2	 184.0	 0.0	 0.0	 0.0	 1	    1.04932	   -0.82494	 138.0	 1	    1.06000	    0.94000;
	117	 1	 20.0	 8.0	 0.0	 0.0	 1	    1.04532	   -4.00286	 138.0	 1	    1.06000	    0.94000;
	118	 1	 33.0	 15.0	 0.0	 0.0	 1	    0.98412	   -7.79876	 138.0	 1	    1.06000	    0.94000;
];

%% generator data
%	bus	Pg	Qg	Qmax	Qmin	Vg	mBase	status	Pmax	Pmin	Pc1	Pc2	Qc1min	Qc1max	Qc2min	Qc2max	ramp_agc	ramp_10	ramp_30	ramp_q	apf
mpc.gen = [
	1	 0.0	 15.0	 15.0	 -5.0	 1.03461	 100.0	 1	 0.0	 0.0	 0.0	 0.0	 0.0	 0.0	 0.0	 0.0	 0.0	 0.0	 0.0	 0.0	 0.0;
	4	 0.0	 51.708	 300.0	 -300.0	 1.06	 100.0	 1	 0.0	 0.0	 0.0	 0.0	 0.0	 0.0	 0.0	 0.0	 0.0	 0.0	 0.0	 0.0	 0.0;
	6	 0.0	 40.281	 50.0	 -13.0	 1.06	 100.0	 1	 0.0	 0.0	 0.0	 0.0	 0.0	 0.0	 0.0	 0.0	 0.0	 0.0	 0.0	 0.0	 0.0;
	8	 0.0	 -76.967	 300.0	 -300.0	 1.04093	 100.0	 1	 0.0	 0.0	 0.0	 0.0	 0.0	 0.0	 0.0	 0.0	 0.0	 0.0	 0.0	 0.0	 0.0;
	10	 495.333	 -73.404	 200.0	 -147.0	 1.06	 100.0	 1	 663.0	 0.0	 0.0	 0.0	 0.0	 0.0	 0.0	 0.0	 0.0	 0.0	 0.0	 0.0	 0.0;
	12	 287.0	 48.078	 120.0	 -35.0	 1.06	 100.0	 1	 287.0	 0.0	 0.0	 0.0	 0.0	 0.0	 0.0	 0.0	 0.0	 0.0	 0.0	 0.0	 0.0;
	15	 0.0	 30.0	 30.0	 -10.0	 1.04879	 100.0	 1	 0.0	 0.0	 0.0	 0.0	 0.0	 0.0	 0.0	 0.0	 0.0	 0.0	 0.0	 0.0	 0.0;
	18	 0.0	 50.0	 50.0	 -16.0	 1.05414	 100.0	 1	 0.0	 0.0	 0.0	 0.0	 0.0	 0.0	 0.0	 0.0	 0.0	 0.0	 0.0	 0.0	 0.0;
	19	 0.0	 24.0	 24.0	 -8.0	 1.04817	 100.0	 1	 0.0	 0.0	 0.0	 0.0	 0.0	 0.0	 0.0	 0.0	 0.0	 0.0	 0.0	 0.0	 0.0;
	24	 0.0	 52.248	 300.0	 -300.0	 1.06	 100.0	 1	 0.0	 0.0	 0.0	 0.0	 0.0	 0.0	 0.0	 0.0	 0.0	 0.0	 0.0	 0.0	 0.0;
	25	 0.0	 -47.0	 134.0	 -47.0	 1.06	 100.0	 1	 267.0	 0.0	 0.0	 0.0	 0.0	 0.0	 0.0	 0.0	 0.0	 0.0	 0.0	 0.0	 0.0;
	26	 368.55	 87.592	 226.0	 -226.0	 1.05443	 100.0	 1	 451.0	 0.0	 0.0	 0.0	 0.0	 0.0	 0.0	 0.0	 0.0	 0.0	 0.0	 0.0	 0.0;
	27	 0.0	 -136.051	 300.0	 -300.0	 0.94	 100.0	 1	 0.0	 0.0	 0.0	 0.0	 0.0	 0.0	 0.0	 0.0	 0.0	 0.0	 0.0	 0.0	 0.0;
	31	 23.0	 12.0	 12.0	 -12.0	 0.98293	 100.0	 1	 23.0	 0.0	 0.0	 0.0	 0.0	 0.0	 0.0	 0.0	 0.0	 0.0	 0.0	 0.0	 0.0;
	32	 0.0	 42.0	 42.0	 -14.0	 0.98462	 100.0	 1	 0.0	 0.0	 0.0	 0.0	 0.0	 0.0	 0.0	 0.0	 0.0	 0.0	 0.0	 0.0	 0.0;
	34	 0.0	 21.581	 24.0	 -8.0	 1.05818	 100.0	 1	 0.0	 0.0	 0.0	 0.0	 0.0	 0.0	 0.0	 0.0	 0.0	 0.0	 0.0	 0.0	 0.0;
	36	 0.0	 20.778	 24.0	 -8.0	 1.05544	 100.0	 1	 0.0	 0.0	 0.0	 0.0	 0.0	 0.0	 0.0	 0.0	 0.0	 0.0	 0.0	 0.0	 0.0;
	40	 0.0	 91.908	 300.0	 -300.0	 1.01199	 100.0	 1	 0.0	 0.0	 0.0	 0.0	 0.0	 0.0	 0.0	 0.0	 0.0	 0.0	 0.0	 0.0	 0.0;
	42	 0.0	 -94.651	 300.0	 -300.0	 0.94	 100.0	 1	 0.0	 0.0	 0.0	 0.0	 0.0	 0.0	 0.0	 0.0	 0.0	 0.0	 0.0	 0.0	 0.0;
	46	 42.034	 15.034	 26.0	 -26.0	 1.06	 100.0	 1	 51.0	 0.0	 0.0	 0.0	 0.0	 0.0	 0.0	 0.0	 0.0	 0.0	 0.0	 0.0	 0.0;
	49	 42.413	 116.0	 116.0	 -85.0	 1.05194	 100.0	 1	 232.0	 0.0	 0.0	 0.0	 0.0	 0.0	 0.0	 0.0	 0.0	 0.0	 0.0	 0.0	 0.0;
	54	 97.17	 75.0	 75.0	 -75.0	 1.038	 100.0	 1	 150.0	 0.0	 0.0	 0.0	 0.0	 0.0	 0.0	 0.0	 0.0	 0.0	 0.0	 0.0	 0.0;
	55	 0.0	 23.0	 23.0	 -8.0	 1.03365	 100.0	 1	 0.0	 0.0	 0.0	 0.0	 0.0	 0.0	 0.0	 0.0	 0.0	 0.0	 0.0	 0.0	 0.0;
	56	 0.0	 15.0	 15.0	 -8.0	 1.03456	 100.0	 1	 0.0	 0.0	 0.0	 0.0	 0.0	 0.0	 0.0	 0.0	 0.0	 0.0	 0.0	 0.0	 0.0;
	59	 0.0	 141.0	 141.0	 -60.0	 1.03271	 100.0	 1	 282.0	 0.0	 0.0	 0.0	 0.0	 0.0	 0.0	 0.0	 0.0	 0.0	 0.0	 0.0	 0.0;
	61	 251.0	 -100.0	 126.0	 -100.0	 1.00831	 100.0	 1	 251.0	 0.0	 0.0	 0.0	 0.0	 0.0	 0.0	 0.0	 0.0	 0.0	 0.0	 0.0	 0.0;
	62	 0.0	 -20.0	 20.0	 -20.0	 1.00747	 100.0	 1	 0.0	 0.0	 0.0	 0.0	 0.0	 0.0	 0.0	 0.0	 0.0	 0.0	 0.0	 0.0	 0.0;
	65	 608.0	 -67.0	 200.0	 -67.0	 1.02221	 100.0	 1	 608.0	 0.0	 0.0	 0.0	 0.0	 0.0	 0.0	 0.0	 0.0	 0.0	 0.0	 0.0	 0.0;
	66	 399.229	 -67.0	 200.0	 -67.0	 1.06	 100.0	 1	 865.0	 0.0	 0.0	 0.0	 0.0	 0.0	 0.0	 0.0	 0.0	 0.0	 0.0	 0.0	 0.0;
	69	 402.435	 -121.805	 300.0	 -300.0	 1.06	 100.0	 1	 881.0	 0.0	 0.0	 0.0	 0.0	 0.0	 0.0	 0.0	 0.0	 0.0	 0.0	 0.0	 0.0;
	70	 0.0	 -10.0	 32.0	 -10.0	 1.00981	 100.0	 1	 0.0	 0.0	 0.0	 0.0	 0.0	 0.0	 0.0	 0.0	 0.0	 0.0	 0.0	 0.0	 0.0;
	72	 0.0	 -3.773	 100.0	 -100.0	 1.03266	 100.0	 1	 0.0	 0.0	 0.0	 0.0	 0.0	 0.0	 0.0	 0.0	 0.0	 0.0	 0.0	 0.0	 0.0;
	73	 0.0	 -11.773	 100.0	 -100.0	 1.00522	 100.0	 1	 0.0	 0.0	 0.0	 0.0	 0.0	 0.0	 0.0	 0.0	 0.0	 0.0	 0.0	 0.0	 0.0;
	74	 0.0	 9.0	 9.0	 -6.0	 0.99365	 100.0	 1	 0.0	 0.0	 0.0	 0.0	 0.0	 0.0	 0.0	 0.0	 0.0	 0.0	 0.0	 0.0	 0.0;
	76	 0.0	 23.0	 23.0	 -8.0	 0.98056	 100.0	 1	 0.0	 0.0	 0.0	 0.0	 0.0	 0.0	 0.0	 0.0	 0.0	 0.0	 0.0	 0.0	 0.0;
	77	 0.0	 70.0	 70.0	 -20.0	 1.02127	 100.0	 1	 0.0	 0.0	 0.0	 0.0	 0.0	 0.0	 0.0	 0.0	 0.0	 0.0	 0.0	 0.0	 0.0;
	80	 542.622	 -165.0	 280.0	 -165.0	 1.02859	 100.0	 1	 739.0	 0.0	 0.0	 0.0	 0.0	 0.0	 0.0	 0.0	 0.0	 0.0	 0.0	 0.0	 0.0;
	85	 0.0	 23.0	 23.0	 -8.0	 1.04126	 100.0	 1	 0.0	 0.0	 0.0	 0.0	 0.0	 0.0	 0.0	 0.0	 0.0	 0.0	 0.0	 0.0	 0.0;
	87	 0.0	 4.0	 4.0	 -4.0	 1.04686	 100.0	 1	 7.0	 0.0	 0.0	 0.0	 0.0	 0.0	 0.0	 0.0	 0.0	 0.0	 0.0	 0.0	 0.0;
	89	 563.794	 -14.559	 300.0	 -210.0	 1.06	 100.0	 1	 845.0	 0.0	 0.0	 0.0	 0.0	 0.0	 0.0	 0.0	 0.0	 0.0	 0.0	 0.0	 0.0;
	90	 0.0	 75.568	 300.0	 -300.0	 1.05198	 100.0	 1	 0.0	 0.0	 0.0	 0.0	 0.0	 0.0	 0.0	 0.0	 0.0	 0.0	 0.0	 0.0	 0.0;
	91	 0.0	 -2.765	 100.0	 -100.0	 1.04655	 100.0	 1	 0.0	 0.0	 0.0	 0.0	 0.0	 0.0	 0.0	 0.0	 0.0	 0.0	 0.0	 0.0	 0.0;
	92	 0.0	 9.0	 9.0	 -3.0	 1.04185	 100.0	 1	 0.0	 0.0	 0.0	 0.0	 0.0	 0.0	 0.0	 0.0	 0.0	 0.0	 0.0	 0.0	 0.0;
	99	 0.0	 -2.593	 100.0	 -100.0	 1.02883	 100.0	 1	 0.0	 0.0	 0.0	 0.0	 0.0	 0.0	 0.0	 0.0	 0.0	 0.0	 0.0	 0.0	 0.0;
	100	 147.911	 62.03	 151.0	 -50.0	 1.03698	 100.0	 1	 301.0	 0.0	 0.0	 0.0	 0.0	 0.0	 0.0	 0.0	 0.0	 0.0	 0.0	 0.0	 0.0;
	103	 98.0	 32.139	 40.0	 -15.0	 1.0344	 100.0	 1	 98.0	 0.0	 0.0	 0.0	 0.0	 0.0	 0.0	 0.0	 0.0	 0.0	 0.0	 0.0	 0.0;
	104	 0.0	 23.0	 23.0	 -8.0	 1.02039	 100.0	 1	 0.0	 0.0	 0.0	 0.0	 0.0	 0.0	 0.0	 0.0	 0.0	 0.0	 0.0	 0.0	 0.0;
	105	 0.0	 23.0	 23.0	 -8.0	 1.0178	 100.0	 1	 0.0	 0.0	 0.0	 0.0	 0.0	 0.0	 0.0	 0.0	 0.0	 0.0	 0.0	 0.0	 0.0;
	107	 0.0	 8.169	 200.0	 -200.0	 1.00581	 100.0	 1	 0.0	 0.0	 0.0	 0.0	 0.0	 0.0	 0.0	 0.0	 0.0	 0.0	 0.0	 0.0	 0.0;
	110	 0.0	 23.0	 23.0	 -8.0	 1.00671	 100.0	 1	 0.0	 0.0	 0.0	 0.0	 0.0	 0.0	 0.0	 0.0	 0.0	 0.0	 0.0	 0.0	 0.0;
	111	 0.0	 3.727	 67.0	 -67.0	 1.01025	 100.0	 1	 133.0	 0.0	 0.0	 0.0	 0.0	 0.0	 0.0	 0.0	 0.0	 0.0	 0.0	 0.0	 0.0;
	112	 0.0	 17.044	 1000.0	 -100.0	 0.99334	 100.0	 1	 0.0	 0.0	 0.0	 0.0	 0.0	 0.0	 0.0	 0.0	 0.0	 0.0	 0.0	 0.0	 0.0;
	113	 0.0	 32.639	 200.0	 -100.0	 1.05863	 100.0	 1	 0.0	 0.0	 0.0	 0.0	 0.0	 0.0	 0.0	 0.0	 0.0	 0.0	 0.0	 0.0	 0.0;
	116	 0.0	 302.358	 1000.0	 -1000.0	 1.04932	 100.0	 1	 0.0	 0.0	 0.0	 0.0	 0.0	 0.0	 0.0	 0.0	 0.0	 0.0	 0.0	 0.0	 0.0;
];

%% generator cost data
%	2	startup	shutdown	n	c(n-1)	...	c0
mpc.gencost = [
	2	 0.0	 0.0	 3	   0.000000	   0.000000	   0.000000;
	2	 0.0	 0.0	 3	   0.000000	   0.000000	   0.000000;
	2	 0.0	 0.0	 3	   0.000000	   0.000000	   0.000000;
	2	 0.0	 0.0	 3	   0.000000	   0.000000	   0.000000;
	2	 0.0	 0.0	 3	   0.000000	   1.463389	   0.000000;
	2	 0.0	 0.0	 3	   0.000000	   0.889054	   0.000000;
	2	 0.0	 0.0	 3	   0.000000	   0.000000	   0.000000;
	2	 0.0	 0.0	 3	   0.000000	   0.000000	   0.000000;
	2	 0.0	 0.0	 3	   0.000000	   0.000000	   0.000000;
	2	 0.0	 0.0	 3	   0.000000	   0.000000	   0.000000;
	2	 0.0	 0.0	 3	   0.000000	   0.929688	   0.000000;
	2	 0.0	 0.0	 3	   0.000000	   1.118121	   0.000000;
	2	 0.0	 0.0	 3	   0.000000	   0.000000	   0.000000;
	2	 0.0	 0.0	 3	   0.000000	   0.814446	   0.000000;
	2	 0.0	 0.0	 3	   0.000000	   0.000000	   0.000000;
	2	 0.0	 0.0	 3	   0.000000	   0.000000	   0.000000;
	2	 0.0	 0.0	 3	   0.000000	   0.000000	   0.000000;
	2	 0.0	 0.0	 3	   0.000000	   0.000000	   0.000000;
	2	 0.0	 0.0	 3	   0.000000	   0.000000	   0.000000;
	2	 0.0	 0.0	 3	   0.000000	   1.513792	   0.000000;
	2	 0.0	 0.0	 3	   0.000000	   1.071413	   0.000000;
	2	 0.0	 0.0	 3	   0.000000	   1.324712	   0.000000;
	2	 0.0	 0.0	 3	   0.000000	   0.000000	   0.000000;
	2	 0.0	 0.0	 3	   0.000000	   0.000000	   0.000000;
	2	 0.0	 0.0	 3	   0.000000	   1.426207	   0.000000;
	2	 0.0	 0.0	 3	   0.000000	   1.245208	   0.000000;
	2	 0.0	 0.0	 3	   0.000000	   0.000000	   0.000000;
	2	 0.0	 0.0	 3	   0.000000	   0.969762	   0.000000;
	2	 0.0	 0.0	 3	   0.000000	   0.865713	   0.000000;
	2	 0.0	 0.0	 3	   0.000000	   0.518513	   0.000000;
	2	 0.0	 0.0	 3	   0.000000	   0.000000	   0.000000;
	2	 0.0	 0.0	 3	   0.000000	   0.000000	   0.000000;
	2	 0.0	 0.0	 3	   0.000000	   0.000000	   0.000000;
	2	 0.0	 0.0	 3	   0.000000	   0.000000	   0.000000;
	2	 0.0	 0.0	 3	   0.000000	   0.000000	   0.000000;
	2	 0.0	 0.0	 3	   0.000000	   0.000000	   0.000000;
	2	 0.0	 0.0	 3	   0.000000	   1.006636	   0.000000;
	2	 0.0	 0.0	 3	   0.000000	   0.000000	   0.000000;
	2	 0.0	 0.0	 3	   0.000000	   1.381184	   0.000000;
	2	 0.0	 0.0	 3	   0.000000	   0.793496	   0.000000;
	2	 0.0	 0.0	 3	   0.000000	   0.000000	   0.000000;
	2	 0.0	 0.0	 3	   0.000000	   0.000000	   0.000000;
	2	 0.0	 0.0	 3	   0.000000	   0.000000	   0.000000;
	2	 0.0	 0.0	 3	   0.000000	   0.000000	   0.000000;
	2	 0.0	 0.0	 3	   0.000000	   1.066562	   0.000000;
	2	 0.0	 0.0	 3	   0.000000	   0.691193	   0.000000;
	2	 0.0	 0.0	 3	   0.000000	   0.000000	   0.000000;
	2	 0.0	 0.0	 3	   0.000000	   0.000000	   0.000000;
	2	 0.0	 0.0	 3	   0.000000	   0.000000	   0.000000;
	2	 0.0	 0.0	 3	   0.000000	   0.000000	   0.000000;
	2	 0.0	 0.0	 3	   0.000000	   1.200887	   0.000000;
	2	 0.0	 0.0	 3	   0.000000	   0.000000	   0.000000;
	2	 0.0	 0.0	 3	   0.000000	   0.000000	   0.000000;
	2	 0.0	 0.0	 3	   0.000000	   0.000000	   0.000000;
];

%% branch data
%	fbus	tbus	r	x	b	rateA	rateB	rateC	ratio	angle	status	angmin	angmax
mpc.branch = [
	1	 2	 0.0303	 0.0999	 0.0254	 151.0	 151.0	 151.0	 0.0	 0.0	 1	 -8.166539	 8.166539;
	1	 3	 0.0129	 0.0424	 0.01082	 151.0	 151.0	 151.0	 0.0	 0.0	 1	 -8.166539	 8.166539;
	4	 5	 0.00176	 0.00798	 0.0021	 176.0	 176.0	 176.0	 0.0	 0.0	 1	 -8.166539	 8.166539;
	3	 5	 0.0241	 0.108	 0.0284	 175.0	 175.0	 175.0	 0.0	 0.0	 1	 -8.166539	 8.166539;
	5	 6	 0.0119	 0.054	 0.01426	 176.0	 176.0	 176.0	 0.0	 0.0	 1	 -8.166539	 8.166539;
	6	 7	 0.00459	 0.0208	 0.0055	 176.0	 176.0	 176.0	 0.0	 0.0	 1	 -8.166539	 8.166539;
	8	 9	 0.00244	 0.0305	 1.162	 711.0	 711.0	 711.0	 0.0	 0.0	 1	 -8.166539	 8.166539;
	8	 5	 0.0	 0.0267	 0.0	 1099.0	 1099.0	 1099.0	 0.985	 0.0	 1	 -8.166539	 8.166539;
	9	 10	 0.00258	 0.0322	 1.23	 710.0	 710.0	 710.0	 0.0	 0.0	 1	 -8.166539	 8.166539;
	4	 11	 0.0209	 0.0688	 0.01748	 151.0	 151.0	 151.0	 0.0	 0.0	 1	 -8.166539	 8.166539;
	5	 11	 0.0203	 0.0682	 0.01738	 152.0	 152.0	 152.0	 0.0	 0.0	 1	 -8.166539	 8.166539;
	11	 12	 0.00595	 0.0196	 0.00502	 151.0	 151.0	 151.0	 0.0	 0.0	 1	 -8.166539	 8.166539;
	2	 12	 0.0187	 0.0616	 0.01572	 151.0	 151.0	 151.0	 0.0	 0.0	 1	 -8.166539	 8.166539;
	3	 12	 0.0484	 0.16	 0.0406	 151.0	 151.0	 151.0	 0.0	 0.0	 1	 -8.166539	 8.166539;
	7	 12	 0.00862	 0.034	 0.00874	 164.0	 164.0	 164.0	 0.0	 0.0	 1	 -8.166539	 8.166539;
	11	 13	 0.02225	 0.0731	 0.01876	 151.0	 151.0	 151.0	 0.0	 0.0	 1	 -8.166539	 8.166539;
	12	 14	 0.0215	 0.0707	 0.01816	 151.0	 151.0	 151.0	 0.0	 0.0	 1	 -8.166539	 8.166539;
	13	 15	 0.0744	 0.2444	 0.06268	 115.0	 115.0	 115.0	 0.0	 0.0	 1	 -8.166539	 8.166539;
	14	 15	 0.0595	 0.195	 0.0502	 144.0	 144.0	 144.0	 0.0	 0.0	 1	 -8.166539	 8.166539;
	12	 16	 0.0212	 0.0834	 0.0214	 164.0	 164.0	 164.0	 0.0	 0.0	 1	 -8.166539	 8.166539;
	15	 17	 0.0132	 0.0437	 0.0444	 151.0	 151.0	 151.0	 0.0	 0.0	 1	 -8.166539	 8.166539;
	16	 17	 0.0454	 0.1801	 0.0466	 158.0	 158.0	 158.0	 0.0	 0.0	 1	 -8.166539	 8.166539;
	17	 18	 0.0123	 0.0505	 0.01298	 167.0	 167.0	 167.0	 0.0	 0.0	 1	 -8.166539	 8.166539;
	18	 19	 0.01119	 0.0493	 0.01142	 173.0	 173.0	 173.0	 0.0	 0.0	 1	 -8.166539	 8.166539;
	19	 20	 0.0252	 0.117	 0.0298	 178.0	 178.0	 178.0	 0.0	 0.0	 1	 -8.166539	 8.166539;
	15	 19	 0.012	 0.0394	 0.0101	 151.0	 151.0	 151.0	 0.0	 0.0	 1	 -8.166539	 8.166539;
	20	 21	 0.0183	 0.0849	 0.0216	 177.0	 177.0	 177.0	 0.0	 0.0	 1	 -8.166539	 8.166539;
	21	 22	 0.0209	 0.097	 0.0246	 178.0	 178.0	 178.0	 0.0	 0.0	 1	 -8.166539	 8.166539;
	22	 23	 0.0342	 0.159	 0.0404	 178.0	 178.0	 178.0	 0.0	 0.0	 1	 -8.166539	 8.166539;
	23	 24	 0.0135	 0.0492	 0.0498	 158.0	 158.0	 158.0	 0.0	 0.0	 1	 -8.166539	 8.166539;
	23	 25	 0.0156	 0.08	 0.0864	 186.0	 186.0	 186.0	 0.0	 0.0	 1	 -8.166539	 8.166539;
	26	 25	 0.0	 0.0382	 0.0	 768.0	 768.0	 768.0	 0.96	 0.0	 1	 -8.166539	 8.166539;
	25	 27	 0.0318	 0.163	 0.1764	 177.0	 177.0	 177.0	 0.0	 0.0	 1	 -8.166539	 8.166539;
	27	 28	 0.01913	 0.0855	 0.0216	 174.0	 174.0	 174.0	 0.0	 0.0	 1	 -8.166539	 8.166539;
	28	 29	 0.0237	 0.0943	 0.0238	 165.0	 165.0	 165.0	 0.0	 0.0	 1	 -8.166539	 8.166539;
	30	 17	 0.0	 0.0388	 0.0	 756.0	 756.0	 756.0	 0.96	 0.0	 1	 -8.166539	 8.166539;
	8	 30	 0.00431	 0.0504	 0.514	 580.0	 580.0	 580.0	 0.0	 0.0	 1	 -8.166539	 8.166539;
	26	 30	 0.00799	 0.086	 0.908	 340.0	 340.0	 340.0	 0.0	 0.0	 1	 -8.166539	 8.166539;
	17	 31	 0.0474	 0.1563	 0.0399	 151.0	 151.0	 151.0	 0.0	 0.0	 1	 -8.166539	 8.166539;
	29	 31	 0.0108	 0.0331	 0.0083	 146.0	 146.0	 146.0	 0.0	 0.0	 1	 -8.166539	 8.166539;
	23	 32	 0.0317	 0.1153	 0.1173	 158.0	 158.0	 158.0	 0.0	 0.0	 1	 -8.166539	 8.166539;
	31	 32	 0.0298	 0.0985	 0.0251	 151.0	 151.0	 151.0	 0.0	 0.0	 1	 -8.166539	 8.166539;
	27	 32	 0.0229	 0.0755	 0.01926	 151.0	 151.0	 151.0	 0.0	 0.0	 1	 -8.166539	 8.166539;
	15	 33	 0.038	 0.1244	 0.03194	 150.0	 150.0	 150.0	 0.0	 0.0	 1	 -8.166539	 8.166539;
	19	 34	 0.0752	 0.247	 0.0632	 114.0	 114.0	 114.0	 0.0	 0.0	 1	 -8.166539	 8.166539;
	35	 36	 0.00224	 0.0102	 0.00268	 176.0	 176.0	 176.0	 0.0	 0.0	 1	 -8.166539	 8.166539;
	35	 37	 0.011	 0.0497	 0.01318	 175.0	 175.0	 175.0	 0.0	 0.0	 1	 -8.166539	 8.166539;
	33	 37	 0.0415	 0.142	 0.0366	 154.0	 154.0	 154.0	 0.0	 0.0	 1	 -8.166539	 8.166539;
	34	 36	 0.00871	 0.0268	 0.00568	 146.0	 146.0	 146.0	 0.0	 0.0	 1	 -8.166539	 8.166539;
	34	 37	 0.00256	 0.0094	 0.00984	 159.0	 159.0	 159.0	 0.0	 0.0	 1	 -8.166539	 8.166539;
	38	 37	 0.0	 0.0375	 0.0	 783.0	 783.0	 783.0	 0.935	 0.0	 1	 -8.166539	 8.166539;
	37	 39	 0.0321	 0.106	 0.027	 151.0	 151.0	 151.0	 0.0	 0.0	 1	 -8.166539	 8.166539;
	37	 40	 0.0593	 0.168	 0.042	 140.0	 140.0	 140.0	 0.0	 0.0	 1	 -8.166539	 8.166539;
	30	 38	 0.00464	 0.054	 0.422	 542.0	 542.0	 542.0	 0.0	 0.0	 1	 -8.166539	 8.166539;
	39	 40	 0.0184	 0.0605	 0.01552	 151.0	 151.0	 151.0	 0.0	 0.0	 1	 -8.166539	 8.166539;
	40	 41	 0.0145	 0.0487	 0.01222	 152.0	 152.0	 152.0	 0.0	 0.0	 1	 -8.166539	 8.166539;
	40	 42	 0.0555	 0.183	 0.0466	 151.0	 151.0	 151.0	 0.0	 0.0	 1	 -8.166539	 8.166539;
	41	 42	 0.041	 0.135	 0.0344	 151.0	 151.0	 151.0	 0.0	 0.0	 1	 -8.166539	 8.166539;
	43	 44	 0.0608	 0.2454	 0.06068	 117.0	 117.0	 117.0	 0.0	 0.0	 1	 -8.166539	 8.166539;
	34	 43	 0.0413	 0.1681	 0.04226	 167.0	 167.0	 167.0	 0.0	 0.0	 1	 -8.166539	 8.166539;
	44	 45	 0.0224	 0.0901	 0.0224	 166.0	 166.0	 166.0	 0.0	 0.0	 1	 -8.166539	 8.166539;
	45	 46	 0.04	 0.1356	 0.0332	 153.0	 153.0	 153.0	 0.0	 0.0	 1	 -8.166539	 8.166539;
	46	 47	 0.038	 0.127	 0.0316	 152.0	 152.0	 152.0	 0.0	 0.0	 1	 -8.166539	 8.166539;
	46	 48	 0.0601	 0.189	 0.0472	 148.0	 148.0	 148.0	 0.0	 0.0	 1	 -8.166539	 8.166539;
	47	 49	 0.0191	 0.0625	 0.01604	 150.0	 150.0	 150.0	 0.0	 0.0	 1	 -8.166539	 8.166539;
	42	 49	 0.0715	 0.323	 0.086	 89.0	 89.0	 89.0	 0.0	 0.0	 1	 -8.166539	 8.166539;
	42	 49	 0.0715	 0.323	 0.086	 89.0	 89.0	 89.0	 0.0	 0.0	 1	 -8.166539	 8.166539;
	45	 49	 0.0684	 0.186	 0.0444	 138.0	 138.0	 138.0	 0.0	 0.0	 1	 -8.166539	 8.166539;
	48	 49	 0.0179	 0.0505	 0.01258	 140.0	 140.0	 140.0	 0.0	 0.0	 1	 -8.166539	 8.166539;
	49	 50	 0.0267	 0.0752	 0.01874	 140.0	 140.0	 140.0	 0.0	 0.0	 1	 -8.166539	 8.166539;
	49	 51	 0.0486	 0.137	 0.0342	 140.0	 140.0	 140.0	 0.0	 0.0	 1	 -8.166539	 8.166539;
	51	 52	 0.0203	 0.0588	 0.01396	 142.0	 142.0	 142.0	 0.0	 0.0	 1	 -8.166539	 8.166539;
	52	 53	 0.0405	 0.1635	 0.04058	 166.0	 166.0	 166.0	 0.0	 0.0	 1	 -8.166539	 8.166539;
	53	 54	 0.0263	 0.122	 0.031	 177.0	 177.0	 177.0	 0.0	 0.0	 1	 -8.166539	 8.166539;
	49	 54	 0.073	 0.289	 0.0738	 99.0	 99.0	 99.0	 0.0	 0.0	 1	 -8.166539	 8.166539;
	49	 54	 0.0869	 0.291	 0.073	 97.0	 97.0	 97.0	 0.0	 0.0	 1	 -8.166539	 8.166539;
	54	 55	 0.0169	 0.0707	 0.0202	 169.0	 169.0	 169.0	 0.0	 0.0	 1	 -8.166539	 8.166539;
	54	 56	 0.00275	 0.00955	 0.00732	 155.0	 155.0	 155.0	 0.0	 0.0	 1	 -8.166539	 8.166539;
	55	 56	 0.00488	 0.0151	 0.00374	 146.0	 146.0	 146.0	 0.0	 0.0	 1	 -8.166539	 8.166539;
	56	 57	 0.0343	 0.0966	 0.0242	 140.0	 140.0	 140.0	 0.0	 0.0	 1	 -8.166539	 8.166539;
	50	 57	 0.0474	 0.134	 0.0332	 140.0	 140.0	 140.0	 0.0	 0.0	 1	 -8.166539	 8.166539;
	56	 58	 0.0343	 0.0966	 0.0242	 140.0	 140.0	 140.0	 0.0	 0.0	 1	 -8.166539	 8.166539;
	51	 58	 0.0255	 0.0719	 0.01788	 140.0	 140.0	 140.0	 0.0	 0.0	 1	 -8.166539	 8.166539;
	54	 59	 0.0503	 0.2293	 0.0598	 125.0	 125.0	 125.0	 0.0	 0.0	 1	 -8.166539	 8.166539;
	56	 59	 0.0825	 0.251	 0.0569	 112.0	 112.0	 112.0	 0.0	 0.0	 1	 -8.166539	 8.166539;
	56	 59	 0.0803	 0.239	 0.0536	 117.0	 117.0	 117.0	 0.0	 0.0	 1	 -8.166539	 8.166539;
	55	 59	 0.04739	 0.2158	 0.05646	 133.0	 133.0	 133.0	 0.0	 0.0	 1	 -8.166539	 8.166539;
	59	 60	 0.0317	 0.145	 0.0376	 176.0	 176.0	 176.0	 0.0	 0.0	 1	 -8.166539	 8.166539;
	59	 61	 0.0328	 0.15	 0.0388	 176.0	 176.0	 176.0	 0.0	 0.0	 1	 -8.166539	 8.166539;
	60	 61	 0.00264	 0.0135	 0.01456	 186.0	 186.0	 186.0	 0.0	 0.0	 1	 -8.166539	 8.166539;
	60	 62	 0.0123	 0.0561	 0.01468	 176.0	 176.0	 176.0	 0.0	 0.0	 1	 -8.166539	 8.166539;
	61	 62	 0.00824	 0.0376	 0.0098	 176.0	 176.0	 176.0	 0.0	 0.0	 1	 -8.166539	 8.166539;
	63	 59	 0.0	 0.0386	 0.0	 760.0	 760.0	 760.0	 0.96	 0.0	 1	 -8.166539	 8.166539;
	63	 64	 0.00172	 0.02	 0.216	 687.0	 687.0	 687.0	 0.0	 0.0	 1	 -8.166539	 8.166539;
	64	 61	 0.0	 0.0268	 0.0	 1095.0	 1095.0	 1095.0	 0.985	 0.0	 1	 -8.166539	 8.166539;
	38	 65	 0.00901	 0.0986	 1.046	 297.0	 297.0	 297.0	 0.0	 0.0	 1	 -8.166539	 8.166539;
	64	 65	 0.00269	 0.0302	 0.38	 675.0	 675.0	 675.0	 0.0	 0.0	 1	 -8.166539	 8.166539;
	49	 66	 0.018	 0.0919	 0.0248	 186.0	 186.0	 186.0	 0.0	 0.0	 1	 -8.166539	 8.166539;
	49	 66	 0.018	 0.0919	 0.0248	 186.0	 186.0	 186.0	 0.0	 0.0	 1	 -8.166539	 8.166539;
	62	 66	 0.0482	 0.218	 0.0578	 132.0	 132.0	 132.0	 0.0	 0.0	 1	 -8.166539	 8.166539;
	62	 67	 0.0258	 0.117	 0.031	 176.0	 176.0	 176.0	 0.0	 0.0	 1	 -8.166539	 8.166539;
	65	 66	 0.0	 0.037	 0.0	 793.0	 793.0	 793.0	 0.935	 0.0	 1	 -8.166539	 8.166539;
	66	 67	 0.0224	 0.1015	 0.02682	 176.0	 176.0	 176.0	 0.0	 0.0	 1	 -8.166539	 8.166539;
	65	 68	 0.00138	 0.016	 0.638	 686.0	 686.0	 686.0	 0.0	 0.0	 1	 -8.166539	 8.166539;
	47	 69	 0.0844	 0.2778	 0.07092	 102.0	 102.0	 102.0	 0.0	 0.0	 1	 -8.166539	 8.166539;
	49	 69	 0.0985	 0.324	 0.0828	 87.0	 87.0	 87.0	 0.0	 0.0	 1	 -8.166539	 8.166539;
	68	 69	 0.0	 0.037	 0.0	 793.0	 793.0	 793.0	 0.935	 0.0	 1	 -8.166539	 8.166539;
	69	 70	 0.03	 0.127	 0.122	 170.0	 170.0	 170.0	 0.0	 0.0	 1	 -8.166539	 8.166539;
	24	 70	 0.00221	 0.4115	 0.10198	 72.0	 72.0	 72.0	 0.0	 0.0	 1	 -8.166539	 8.166539;
	70	 71	 0.00882	 0.0355	 0.00878	 166.0	 166.0	 166.0	 0.0	 0.0	 1	 -8.166539	 8.166539;
	24	 72	 0.0488	 0.196	 0.0488	 146.0	 146.0	 146.0	 0.0	 0.0	 1	 -8.166539	 8.166539;
	71	 72	 0.0446	 0.18	 0.04444	 159.0	 159.0	 159.0	 0.0	 0.0	 1	 -8.166539	 8.166539;
	71	 73	 0.00866	 0.0454	 0.01178	 188.0	 188.0	 188.0	 0.0	 0.0	 1	 -8.166539	 8.166539;
	70	 74	 0.0401	 0.1323	 0.03368	 151.0	 151.0	 151.0	 0.0	 0.0	 1	 -8.166539	 8.166539;
	70	 75	 0.0428	 0.141	 0.036	 151.0	 151.0	 151.0	 0.0	 0.0	 1	 -8.166539	 8.166539;
	69	 75	 0.0405	 0.122	 0.124	 145.0	 145.0	 145.0	 0.0	 0.0	 1	 -8.166539	 8.166539;
	74	 75	 0.0123	 0.0406	 0.01034	 151.0	 151.0	 151.0	 0.0	 0.0	 1	 -8.166539	 8.166539;
	76	 77	 0.0444	 0.148	 0.0368	 152.0	 152.0	 152.0	 0.0	 0.0	 1	 -8.166539	 8.166539;
	69	 77	 0.0309	 0.101	 0.1038	 150.0	 150.0	 150.0	 0.0	 0.0	 1	 -8.166539	 8.166539;
	75	 77	 0.0601	 0.1999	 0.04978	 141.0	 141.0	 141.0	 0.0	 0.0	 1	 -8.166539	 8.166539;
	77	 78	 0.00376	 0.0124	 0.01264	 151.0	 151.0	 151.0	 0.0	 0.0	 1	 -8.166539	 8.166539;
	78	 79	 0.00546	 0.0244	 0.00648	 174.0	 174.0	 174.0	 0.0	 0.0	 1	 -8.166539	 8.166539;
	77	 80	 0.017	 0.0485	 0.0472	 141.0	 141.0	 141.0	 0.0	 0.0	 1	 -8.166539	 8.166539;
	77	 80	 0.0294	 0.105	 0.0228	 157.0	 157.0	 157.0	 0.0	 0.0	 1	 -8.166539	 8.166539;
	79	 80	 0.0156	 0.0704	 0.0187	 175.0	 175.0	 175.0	 0.0	 0.0	 1	 -8.166539	 8.166539;
	68	 81	 0.00175	 0.0202	 0.808	 684.0	 684.0	 684.0	 0.0	 0.0	 1	 -8.166539	 8.166539;
	81	 80	 0.0	 0.037	 0.0	 793.0	 793.0	 793.0	 0.935	 0.0	 1	 -8.166539	 8.166539;
	77	 82	 0.0298	 0.0853	 0.08174	 141.0	 141.0	 141.0	 0.0	 0.0	 1	 -8.166539	 8.166539;
	82	 83	 0.0112	 0.03665	 0.03796	 150.0	 150.0	 150.0	 0.0	 0.0	 1	 -8.166539	 8.166539;
	83	 84	 0.0625	 0.132	 0.0258	 122.0	 122.0	 122.0	 0.0	 0.0	 1	 -8.166539	 8.166539;
	83	 85	 0.043	 0.148	 0.0348	 154.0	 154.0	 154.0	 0.0	 0.0	 1	 -8.166539	 8.166539;
	84	 85	 0.0302	 0.0641	 0.01234	 122.0	 122.0	 122.0	 0.0	 0.0	 1	 -8.166539	 8.166539;
	85	 86	 0.035	 0.123	 0.0276	 156.0	 156.0	 156.0	 0.0	 0.0	 1	 -8.166539	 8.166539;
	86	 87	 0.02828	 0.2074	 0.0445	 141.0	 141.0	 141.0	 0.0	 0.0	 1	 -8.166539	 8.166539;
	85	 88	 0.02	 0.102	 0.0276	 186.0	 186.0	 186.0	 0.0	 0.0	 1	 -8.166539	 8.166539;
	85	 89	 0.0239	 0.173	 0.047	 168.0	 168.0	 168.0	 0.0	 0.0	 1	 -8.166539	 8.166539;
	88	 89	 0.0139	 0.0712	 0.01934	 186.0	 186.0	 186.0	 0.0	 0.0	 1	 -8.166539	 8.166539;
	89	 90	 0.0518	 0.188	 0.0528	 151.0	 151.0	 151.0	 0.0	 0.0	 1	 -8.166539	 8.166539;
	89	 90	 0.0238	 0.0997	 0.106	 169.0	 169.0	 169.0	 0.0	 0.0	 1	 -8.166539	 8.166539;
	90	 91	 0.0254	 0.0836	 0.0214	 151.0	 151.0	 151.0	 0.0	 0.0	 1	 -8.166539	 8.166539;
	89	 92	 0.0099	 0.0505	 0.0548	 186.0	 186.0	 186.0	 0.0	 0.0	 1	 -8.166539	 8.166539;
	89	 92	 0.0393	 0.1581	 0.0414	 166.0	 166.0	 166.0	 0.0	 0.0	 1	 -8.166539	 8.166539;
	91	 92	 0.0387	 0.1272	 0.03268	 151.0	 151.0	 151.0	 0.0	 0.0	 1	 -8.166539	 8.166539;
	92	 93	 0.0258	 0.0848	 0.0218	 151.0	 151.0	 151.0	 0.0	 0.0	 1	 -8.166539	 8.166539;
	92	 94	 0.0481	 0.158	 0.0406	 151.0	 151.0	 151.0	 0.0	 0.0	 1	 -8.166539	 8.166539;
	93	 94	 0.0223	 0.0732	 0.01876	 151.0	 151.0	 151.0	 0.0	 0.0	 1	 -8.166539	 8.166539;
	94	 95	 0.0132	 0.0434	 0.0111	 151.0	 151.0	 151.0	 0.0	 0.0	 1	 -8.166539	 8.166539;
	80	 96	 0.0356	 0.182	 0.0494	 159.0	 159.0	 159.0	 0.0	 0.0	 1	 -8.166539	 8.166539;
	82	 96	 0.0162	 0.053	 0.0544	 150.0	 150.0	 150.0	 0.0	 0.0	 1	 -8.166539	 8.166539;
	94	 96	 0.0269	 0.0869	 0.023	 149.0	 149.0	 149.0	 0.0	 0.0	 1	 -8.166539	 8.166539;
	80	 97	 0.0183	 0.0934	 0.0254	 186.0	 186.0	 186.0	 0.0	 0.0	 1	 -8.166539	 8.166539;
	80	 98	 0.0238	 0.108	 0.0286	 176.0	 176.0	 176.0	 0.0	 0.0	 1	 -8.166539	 8.166539;
	80	 99	 0.0454	 0.206	 0.0546	 140.0	 140.0	 140.0	 0.0	 0.0	 1	 -8.166539	 8.166539;
	92	 100	 0.0648	 0.295	 0.0472	 98.0	 98.0	 98.0	 0.0	 0.0	 1	 -8.166539	 8.166539;
	94	 100	 0.0178	 0.058	 0.0604	 150.0	 150.0	 150.0	 0.0	 0.0	 1	 -8.166539	 8.166539;
	95	 96	 0.0171	 0.0547	 0.01474	 149.0	 149.0	 149.0	 0.0	 0.0	 1	 -8.166539	 8.166539;
	96	 97	 0.0173	 0.0885	 0.024	 186.0	 186.0	 186.0	 0.0	 0.0	 1	 -8.166539	 8.166539;
	98	 100	 0.0397	 0.179	 0.0476	 160.0	 160.0	 160.0	 0.0	 0.0	 1	 -8.166539	 8.166539;
	99	 100	 0.018	 0.0813	 0.0216	 175.0	 175.0	 175.0	 0.0	 0.0	 1	 -8.166539	 8.166539;
	100	 101	 0.0277	 0.1262	 0.0328	 176.0	 176.0	 176.0	 0.0	 0.0	 1	 -8.166539	 8.166539;
	92	 102	 0.0123	 0.0559	 0.01464	 176.0	 176.0	 176.0	 0.0	 0.0	 1	 -8.166539	 8.166539;
	101	 102	 0.0246	 0.112	 0.0294	 176.0	 176.0	 176.0	 0.0	 0.0	 1	 -8.166539	 8.166539;
	100	 103	 0.016	 0.0525	 0.0536	 151.0	 151.0	 151.0	 0.0	 0.0	 1	 -8.166539	 8.166539;
	100	 104	 0.0451	 0.204	 0.0541	 141.0	 141.0	 141.0	 0.0	 0.0	 1	 -8.166539	 8.166539;
	103	 104	 0.0466	 0.1584	 0.0407	 153.0	 153.0	 153.0	 0.0	 0.0	 1	 -8.166539	 8.166539;
	103	 105	 0.0535	 0.1625	 0.0408	 145.0	 145.0	 145.0	 0.0	 0.0	 1	 -8.166539	 8.166539;
	100	 106	 0.0605	 0.229	 0.062	 124.0	 124.0	 124.0	 0.0	 0.0	 1	 -8.166539	 8.166539;
	104	 105	 0.00994	 0.0378	 0.00986	 161.0	 161.0	 161.0	 0.0	 0.0	 1	 -8.166539	 8.166539;
	105	 106	 0.014	 0.0547	 0.01434	 164.0	 164.0	 164.0	 0.0	 0.0	 1	 -8.166539	 8.166539;
	105	 107	 0.053	 0.183	 0.0472	 154.0	 154.0	 154.0	 0.0	 0.0	 1	 -8.166539	 8.166539;
	105	 108	 0.0261	 0.0703	 0.01844	 137.0	 137.0	 137.0	 0.0	 0.0	 1	 -8.166539	 8.166539;
	106	 107	 0.053	 0.183	 0.0472	 154.0	 154.0	 154.0	 0.0	 0.0	 1	 -8.166539	 8.166539;
	108	 109	 0.0105	 0.0288	 0.0076	 138.0	 138.0	 138.0	 0.0	 0.0	 1	 -8.166539	 8.166539;
	103	 110	 0.03906	 0.1813	 0.0461	 159.0	 159.0	 159.0	 0.0	 0.0	 1	 -8.166539	 8.166539;
	109	 110	 0.0278	 0.0762	 0.0202	 138.0	 138.0	 138.0	 0.0	 0.0	 1	 -8.166539	 8.166539;
	110	 111	 0.022	 0.0755	 0.02	 154.0	 154.0	 154.0	 0.0	 0.0	 1	 -8.166539	 8.166539;
	110	 112	 0.0247	 0.064	 0.062	 135.0	 135.0	 135.0	 0.0	 0.0	 1	 -8.166539	 8.166539;
	17	 113	 0.00913	 0.0301	 0.00768	 151.0	 151.0	 151.0	 0.0	 0.0	 1	 -8.166539	 8.166539;
	32	 113	 0.0615	 0.203	 0.0518	 139.0	 139.0	 139.0	 0.0	 0.0	 1	 -8.166539	 8.166539;
	32	 114	 0.0135	 0.0612	 0.01628	 176.0	 176.0	 176.0	 0.0	 0.0	 1	 -8.166539	 8.166539;
	27	 115	 0.0164	 0.0741	 0.01972	 175.0	 175.0	 175.0	 0.0	 0.0	 1	 -8.166539	 8.166539;
	114	 115	 0.0023	 0.0104	 0.00276	 175.0	 175.0	 175.0	 0.0	 0.0	 1	 -8.166539	 8.166539;
	68	 116	 0.00034	 0.00405	 0.164	 7218.0	 7218.0	 7218.0	 0.0	 0.0	 1	 -8.166539	 8.166539;
	12	 117	 0.0329	 0.14	 0.0358	 170.0	 170.0	 170.0	 0.0	 0.0	 1	 -8.166539	 8.166539;
	75	 118	 0.0145	 0.0481	 0.01198	 151.0	 151.0	 151.0	 0.0	 0.0	 1	 -8.166539	 8.166539;
	76	 118	 0.0164	 0.0544	 0.01356	 151.0	 151.0	 151.0	 0.0	 0.0	 1	 -8.166539	 8.166539;
];

% INFO    : === Translation Options ===
% INFO    : Phase Angle Bound:           8.166539 (deg.)
% INFO    : AC OPF Solution File:        ./nesta_case118_ieee__sad.dat.opf.sol
% INFO    : 
% INFO    : === Voltage Setpoint Replacement Notes ===
% INFO    : Bus 1	: V=1.03312, theta=-32.79828 -> V=1.03461, theta=-4.68943
% INFO    : Bus 2	: V=1.04475, theta=-31.43384 -> V=1.04546, theta=-3.77797
% INFO    : Bus 3	: V=1.03883, theta=-32.29545 -> V=1.04061, theta=-3.99621
% INFO    : Bus 4	: V=1.05717, theta=-30.64006 -> V=1.06, theta=-1.43251
% INFO    : Bus 5	: V=1.05561, theta=-30.4295 -> V=1.05828, theta=-1.06106
% INFO    : Bus 6	: V=1.05523, theta=-31.14473 -> V=1.06, theta=-2.79707
% INFO    : Bus 7	: V=1.05614, theta=-30.84902 -> V=1.05929, theta=-2.86771
% INFO    : Bus 8	: V=1.04474, theta=-28.85811 -> V=1.04093, theta=2.33194
% INFO    : Bus 9	: V=1.06, theta=-28.92744 -> V=1.06, theta=10.03518
% INFO    : Bus 10	: V=1.03529, theta=-28.82046 -> V=1.06, theta=18.20172
% INFO    : Bus 11	: V=1.05161, theta=-30.76606 -> V=1.05213, theta=-2.95841
% INFO    : Bus 12	: V=1.05998, theta=-30.04172 -> V=1.06, theta=-2.65772
% INFO    : Bus 13	: V=1.03909, theta=-31.57009 -> V=1.03809, theta=-5.37967
% INFO    : Bus 14	: V=1.05644, theta=-30.51906 -> V=1.0548, theta=-4.88108
% INFO    : Bus 15	: V=1.04944, theta=-30.35124 -> V=1.04879, theta=-9.58352
% INFO    : Bus 16	: V=1.05301, theta=-30.17316 -> V=1.05219, theta=-4.93299
% INFO    : Bus 17	: V=1.06, theta=-28.29203 -> V=1.06, theta=-7.67769
% INFO    : Bus 18	: V=1.05265, theta=-30.09587 -> V=1.05414, theta=-9.91612
% INFO    : Bus 19	: V=1.04789, theta=-30.27721 -> V=1.04817, theta=-10.48667
% INFO    : Bus 20	: V=1.03471, theta=-28.79835 -> V=1.03634, theta=-10.92499
% INFO    : Bus 21	: V=1.02936, theta=-26.88593 -> V=1.0312, theta=-10.43127
% INFO    : Bus 22	: V=1.03326, theta=-24.02807 -> V=1.03365, theta=-9.19792
% INFO    : Bus 23	: V=1.05205, theta=-18.62829 -> V=1.04498, theta=-6.38636
% INFO    : Bus 24	: V=1.05682, theta=-17.50105 -> V=1.06, theta=-7.13247
% INFO    : Bus 25	: V=1.06, theta=-12.69921 -> V=1.06, theta=-1.14523
% INFO    : Bus 26	: V=1.02524, theta=-12.31739 -> V=1.05443, theta=3.11013
% INFO    : Bus 27	: V=1.04142, theta=-25.04043 -> V=0.94, theta=-9.31177
% INFO    : Bus 28	: V=1.03325, theta=-26.56576 -> V=0.95098, theta=-10.34785
% INFO    : Bus 29	: V=1.032, theta=-27.45763 -> V=0.97198, theta=-10.55743
% INFO    : Bus 30	: V=1.02883, theta=-24.89175 -> V=1.03423, theta=-3.25572
% INFO    : Bus 31	: V=1.03444, theta=-27.3612 -> V=0.98293, theta=-10.19979
% INFO    : Bus 32	: V=1.04234, theta=-25.60296 -> V=0.98462, theta=-9.86387
% INFO    : Bus 33	: V=1.04644, theta=-29.7396 -> V=1.04597, theta=-11.30228
% INFO    : Bus 34	: V=1.05777, theta=-27.93123 -> V=1.05818, theta=-12.12041
% INFO    : Bus 35	: V=1.0552, theta=-28.33563 -> V=1.05496, theta=-12.51506
% INFO    : Bus 36	: V=1.05573, theta=-28.34858 -> V=1.05544, theta=-12.52692
% INFO    : Bus 37	: V=1.06, theta=-27.47808 -> V=1.06, theta=-11.66261
% INFO    : Bus 38	: V=1.00989, theta=-23.1126 -> V=1.01448, theta=-6.74045
% INFO    : Bus 39	: V=1.03411, theta=-29.53575 -> V=1.022, theta=-15.49329
% INFO    : Bus 40	: V=1.02964, theta=-29.95143 -> V=1.01199, theta=-16.96585
% INFO    : Bus 41	: V=1.01757, theta=-29.83569 -> V=0.986, theta=-17.53818
% INFO    : Bus 42	: V=1.01043, theta=-26.8865 -> V=0.94, theta=-16.33308
% INFO    : Bus 43	: V=1.02843, theta=-26.31389 -> V=1.04651, theta=-13.37799
% INFO    : Bus 44	: V=1.00429, theta=-21.41768 -> V=1.04346, theta=-12.96449
% INFO    : Bus 45	: V=0.99592, theta=-18.65545 -> V=1.03955, theta=-11.96238
% INFO    : Bus 46	: V=1.01212, theta=-15.50407 -> V=1.06, theta=-9.53631
% INFO    : Bus 47	: V=1.01972, theta=-11.98215 -> V=1.05248, theta=-8.16654
% INFO    : Bus 48	: V=1.02043, theta=-13.08166 -> V=1.05421, theta=-8.93728
% INFO    : Bus 49	: V=1.02323, theta=-11.80918 -> V=1.05194, theta=-8.16654
% INFO    : Bus 50	: V=1.01133, theta=-15.01814 -> V=1.04182, theta=-10.0561
% INFO    : Bus 51	: V=0.99379, theta=-19.02718 -> V=1.02585, theta=-12.39067
% INFO    : Bus 52	: V=0.98829, theta=-20.33169 -> V=1.02087, theta=-13.22461
% INFO    : Bus 53	: V=0.99145, theta=-22.26594 -> V=1.02205, theta=-13.98006
% INFO    : Bus 54	: V=1.01028, theta=-22.16969 -> V=1.038, theta=-13.11638
% INFO    : Bus 55	: V=1.01049, theta=-22.53065 -> V=1.03365, theta=-13.49631
% INFO    : Bus 56	: V=1.00978, theta=-22.23334 -> V=1.03456, theta=-13.30265
% INFO    : Bus 57	: V=1.00607, theta=-19.58748 -> V=1.03493, theta=-12.29728
% INFO    : Bus 58	: V=0.99809, theta=-20.68389 -> V=1.0275, theta=-13.04338
% INFO    : Bus 59	: V=1.04823, theta=-20.01731 -> V=1.03271, theta=-9.99175
% INFO    : Bus 60	: V=1.05498, theta=-15.1973 -> V=1.00795, theta=-3.83475
% INFO    : Bus 61	: V=1.06, theta=-14.5843 -> V=1.00831, theta=-2.74355
% INFO    : Bus 62	: V=1.04635, theta=-13.62156 -> V=1.00747, theta=-3.48267
% INFO    : Bus 63	: V=1.01792, theta=-15.38993 -> V=0.99628, theta=-5.29413
% INFO    : Bus 64	: V=1.02901, theta=-12.87728 -> V=1.0037, theta=-2.69949
% INFO    : Bus 65	: V=1.02987, theta=-6.9804 -> V=1.02221, theta=1.15319
% INFO    : Bus 66	: V=1.06, theta=-2.98219 -> V=1.06, theta=-0.0
% INFO    : Bus 67	: V=1.04383, theta=-8.66117 -> V=1.02968, theta=-2.36643
% INFO    : Bus 68	: V=1.02062, theta=-5.69944 -> V=1.03793, theta=-0.37718
% INFO    : Bus 69	: V=1.06, theta=0.0 -> V=1.06, theta=0.0
% INFO    : Bus 70	: V=1.0317, theta=-10.14943 -> V=1.00981, theta=-6.66258
% INFO    : Bus 71	: V=1.03547, theta=-11.05505 -> V=1.01079, theta=-6.89182
% INFO    : Bus 72	: V=1.04425, theta=-14.80431 -> V=1.03266, theta=-7.62807
% INFO    : Bus 73	: V=1.03745, theta=-11.22654 -> V=1.00522, theta=-6.99083
% INFO    : Bus 74	: V=1.01048, theta=-10.62642 -> V=0.99365, theta=-7.92796
% INFO    : Bus 75	: V=1.01395, theta=-9.2555 -> V=0.99902, theta=-6.75512
% INFO    : Bus 76	: V=0.9996, theta=-10.91932 -> V=0.98056, theta=-8.06925
% INFO    : Bus 77	: V=1.0441, theta=-6.87286 -> V=1.02127, theta=-3.28408
% INFO    : Bus 78	: V=1.0397, theta=-7.20947 -> V=1.0157, theta=-3.48897
% INFO    : Bus 79	: V=1.04174, theta=-7.04887 -> V=1.01537, theta=-3.04395
% INFO    : Bus 80	: V=1.06, theta=-5.2413 -> V=1.02859, theta=-0.35586
% INFO    : Bus 81	: V=1.01451, theta=-5.50727 -> V=1.0137, theta=-0.2961
% INFO    : Bus 82	: V=1.03483, theta=-7.93386 -> V=1.01636, theta=-4.50047
% INFO    : Bus 83	: V=1.03737, theta=-7.34853 -> V=1.02212, theta=-4.0425
% INFO    : Bus 84	: V=1.04085, theta=-5.87419 -> V=1.0306, theta=-2.7797
% INFO    : Bus 85	: V=1.04907, theta=-4.87495 -> V=1.04126, theta=-1.88165
% INFO    : Bus 86	: V=1.04208, theta=-6.23521 -> V=1.0341, theta=-3.26087
% INFO    : Bus 87	: V=1.05481, theta=-6.33067 -> V=1.04686, theta=-3.35725
% INFO    : Bus 88	: V=1.04735, theta=-2.4852 -> V=1.04422, theta=0.37334
% INFO    : Bus 89	: V=1.06, theta=0.87743 -> V=1.06, theta=3.63639
% INFO    : Bus 90	: V=1.05126, theta=-4.87375 -> V=1.05198, theta=-2.1294
% INFO    : Bus 91	: V=1.04436, theta=-4.73338 -> V=1.04655, theta=-2.02478
% INFO    : Bus 92	: V=1.04495, theta=-3.97186 -> V=1.04185, theta=-1.19135
% INFO    : Bus 93	: V=1.03499, theta=-6.20851 -> V=1.02572, theta=-3.28024
% INFO    : Bus 94	: V=1.03344, theta=-7.74759 -> V=1.01878, theta=-4.70181
% INFO    : Bus 95	: V=1.023, theta=-8.24045 -> V=1.00591, theta=-4.97562
% INFO    : Bus 96	: V=1.03266, theta=-7.88688 -> V=1.01296, theta=-4.31002
% INFO    : Bus 97	: V=1.04162, theta=-6.9113 -> V=1.01573, theta=-2.71634
% INFO    : Bus 98	: V=1.04955, theta=-7.70926 -> V=1.02272, theta=-3.75711
% INFO    : Bus 99	: V=1.0516, theta=-9.04316 -> V=1.02883, theta=-5.84652
% INFO    : Bus 100	: V=1.05328, theta=-8.74861 -> V=1.03698, theta=-6.14549
% INFO    : Bus 101	: V=1.0369, theta=-7.50844 -> V=1.02602, theta=-4.83003
% INFO    : Bus 102	: V=1.04121, theta=-5.23895 -> V=1.03548, theta=-2.48704
% INFO    : Bus 103	: V=1.05037, theta=-11.59117 -> V=1.0344, theta=-9.09147
% INFO    : Bus 104	: V=1.03709, theta=-14.87456 -> V=1.02039, theta=-12.47386
% INFO    : Bus 105	: V=1.03457, theta=-16.04053 -> V=1.0178, theta=-13.67874
% INFO    : Bus 106	: V=1.02649, theta=-16.17592 -> V=1.00962, theta=-13.8194
% INFO    : Bus 107	: V=1.02208, theta=-18.6869 -> V=1.00581, theta=-16.4251
% INFO    : Bus 108	: V=1.02796, theta=-17.58241 -> V=1.01122, theta=-15.27551
% INFO    : Bus 109	: V=1.02564, theta=-18.18557 -> V=1.00893, theta=-15.9005
% INFO    : Bus 110	: V=1.0232, theta=-19.47936 -> V=1.00671, theta=-17.24248
% INFO    : Bus 111	: V=1.02631, theta=-19.53013 -> V=1.01025, theta=-17.30132
% INFO    : Bus 112	: V=1.00975, theta=-21.98347 -> V=0.99334, theta=-19.8374
% INFO    : Bus 113	: V=1.05698, theta=-28.02783 -> V=1.05863, theta=-8.17061
% INFO    : Bus 114	: V=1.03743, theta=-25.85117 -> V=0.96086, theta=-10.20254
% INFO    : Bus 115	: V=1.03697, theta=-25.85163 -> V=0.95725, theta=-10.21286
% INFO    : Bus 116	: V=1.01953, theta=-6.10767 -> V=1.04932, theta=-0.82494
% INFO    : Bus 117	: V=1.0453, theta=-31.38697 -> V=1.04532, theta=-4.00286
% INFO    : Bus 118	: V=1.00105, theta=-10.44915 -> V=0.98412, theta=-7.79876
% INFO    : 
% INFO    : === Generator Setpoint Replacement Notes ===
% INFO    : Gen at bus 1	: Pg=0.0, Qg=15.0 -> Pg=0.0, Qg=15.0
% INFO    : Gen at bus 1	: Vg=1.03312 -> Vg=1.03461
% INFO    : Gen at bus 4	: Pg=0.0, Qg=48.386 -> Pg=0.0, Qg=51.708
% INFO    : Gen at bus 4	: Vg=1.05717 -> Vg=1.06
% INFO    : Gen at bus 6	: Pg=0.0, Qg=27.25 -> Pg=0.0, Qg=40.281
% INFO    : Gen at bus 6	: Vg=1.05523 -> Vg=1.06
% INFO    : Gen at bus 8	: Pg=0.0, Qg=-71.839 -> Pg=0.0, Qg=-76.967
% INFO    : Gen at bus 8	: Vg=1.04474 -> Vg=1.04093
% INFO    : Gen at bus 10	: Pg=0.0, Qg=-145.346 -> Pg=495.333, Qg=-73.404
% INFO    : Gen at bus 10	: Vg=1.03529 -> Vg=1.06
% INFO    : Gen at bus 12	: Pg=287.0, Qg=57.809 -> Pg=287.0, Qg=48.078
% INFO    : Gen at bus 12	: Vg=1.05998 -> Vg=1.06
% INFO    : Gen at bus 15	: Pg=0.0, Qg=30.0 -> Pg=0.0, Qg=30.0
% INFO    : Gen at bus 15	: Vg=1.04944 -> Vg=1.04879
% INFO    : Gen at bus 18	: Pg=0.0, Qg=43.338 -> Pg=0.0, Qg=50.0
% INFO    : Gen at bus 18	: Vg=1.05265 -> Vg=1.05414
% INFO    : Gen at bus 19	: Pg=0.0, Qg=24.0 -> Pg=0.0, Qg=24.0
% INFO    : Gen at bus 19	: Vg=1.04789 -> Vg=1.04817
% INFO    : Gen at bus 24	: Pg=0.0, Qg=9.365 -> Pg=0.0, Qg=52.248
% INFO    : Gen at bus 24	: Vg=1.05682 -> Vg=1.06
% INFO    : Gen at bus 25	: Pg=267.0, Qg=-47.0 -> Pg=0.0, Qg=-47.0
% INFO    : Gen at bus 25	: Vg=1.06 -> Vg=1.06
% INFO    : Gen at bus 26	: Pg=286.801, Qg=-25.059 -> Pg=368.55, Qg=87.592
% INFO    : Gen at bus 26	: Vg=1.02524 -> Vg=1.05443
% INFO    : Gen at bus 27	: Pg=0.0, Qg=30.481 -> Pg=0.0, Qg=-136.051
% INFO    : Gen at bus 27	: Vg=1.04142 -> Vg=0.94
% INFO    : Gen at bus 31	: Pg=23.0, Qg=12.0 -> Pg=23.0, Qg=12.0
% INFO    : Gen at bus 31	: Vg=1.03444 -> Vg=0.98293
% INFO    : Gen at bus 32	: Pg=0.0, Qg=35.98 -> Pg=0.0, Qg=42.0
% INFO    : Gen at bus 32	: Vg=1.04234 -> Vg=0.98462
% INFO    : Gen at bus 34	: Pg=0.0, Qg=24.0 -> Pg=0.0, Qg=21.581
% INFO    : Gen at bus 34	: Vg=1.05777 -> Vg=1.05818
% INFO    : Gen at bus 36	: Pg=0.0, Qg=24.0 -> Pg=0.0, Qg=20.778
% INFO    : Gen at bus 36	: Vg=1.05573 -> Vg=1.05544
% INFO    : Gen at bus 40	: Pg=0.0, Qg=49.945 -> Pg=0.0, Qg=91.908
% INFO    : Gen at bus 40	: Vg=1.02964 -> Vg=1.01199
% INFO    : Gen at bus 42	: Pg=0.0, Qg=26.321 -> Pg=0.0, Qg=-94.651
% INFO    : Gen at bus 42	: Vg=1.01043 -> Vg=0.94
% INFO    : Gen at bus 46	: Pg=0.0, Qg=7.72 -> Pg=42.034, Qg=15.034
% INFO    : Gen at bus 46	: Vg=1.01212 -> Vg=1.06
% INFO    : Gen at bus 49	: Pg=232.0, Qg=-11.011 -> Pg=42.413, Qg=116.0
% INFO    : Gen at bus 49	: Vg=1.02323 -> Vg=1.05194
% INFO    : Gen at bus 54	: Pg=0.0, Qg=55.706 -> Pg=97.17, Qg=75.0
% INFO    : Gen at bus 54	: Vg=1.01028 -> Vg=1.038
% INFO    : Gen at bus 55	: Pg=0.0, Qg=23.0 -> Pg=0.0, Qg=23.0
% INFO    : Gen at bus 55	: Vg=1.01049 -> Vg=1.03365
% INFO    : Gen at bus 56	: Pg=0.0, Qg=15.0 -> Pg=0.0, Qg=15.0
% INFO    : Gen at bus 56	: Vg=1.00978 -> Vg=1.03456
% INFO    : Gen at bus 59	: Pg=0.0, Qg=141.0 -> Pg=0.0, Qg=141.0
% INFO    : Gen at bus 59	: Vg=1.04823 -> Vg=1.03271
% INFO    : Gen at bus 61	: Pg=0.0, Qg=124.577 -> Pg=251.0, Qg=-100.0
% INFO    : Gen at bus 61	: Vg=1.06 -> Vg=1.00831
% INFO    : Gen at bus 62	: Pg=0.0, Qg=-19.999 -> Pg=0.0, Qg=-20.0
% INFO    : Gen at bus 62	: Vg=1.04635 -> Vg=1.00747
% INFO    : Gen at bus 65	: Pg=295.339, Qg=119.802 -> Pg=608.0, Qg=-67.0
% INFO    : Gen at bus 65	: Vg=1.02987 -> Vg=1.02221
% INFO    : Gen at bus 66	: Pg=829.47, Qg=-67.0 -> Pg=399.229, Qg=-67.0
% INFO    : Gen at bus 66	: Vg=1.06 -> Vg=1.06
% INFO    : Gen at bus 69	: Pg=881.0, Qg=-114.523 -> Pg=402.435, Qg=-121.805
% INFO    : Gen at bus 69	: Vg=1.06 -> Vg=1.06
% INFO    : Gen at bus 70	: Pg=0.0, Qg=32.0 -> Pg=0.0, Qg=-10.0
% INFO    : Gen at bus 70	: Vg=1.0317 -> Vg=1.00981
% INFO    : Gen at bus 72	: Pg=0.0, Qg=-1.835 -> Pg=0.0, Qg=-3.773
% INFO    : Gen at bus 72	: Vg=1.04425 -> Vg=1.03266
% INFO    : Gen at bus 73	: Pg=0.0, Qg=5.036 -> Pg=0.0, Qg=-11.773
% INFO    : Gen at bus 73	: Vg=1.03745 -> Vg=1.00522
% INFO    : Gen at bus 74	: Pg=0.0, Qg=9.0 -> Pg=0.0, Qg=9.0
% INFO    : Gen at bus 74	: Vg=1.01048 -> Vg=0.99365
% INFO    : Gen at bus 76	: Pg=0.0, Qg=23.0 -> Pg=0.0, Qg=23.0
% INFO    : Gen at bus 76	: Vg=0.9996 -> Vg=0.98056
% INFO    : Gen at bus 77	: Pg=0.0, Qg=70.0 -> Pg=0.0, Qg=70.0
% INFO    : Gen at bus 77	: Vg=1.0441 -> Vg=1.02127
% INFO    : Gen at bus 80	: Pg=445.771, Qg=-0.215 -> Pg=542.622, Qg=-165.0
% INFO    : Gen at bus 80	: Vg=1.06 -> Vg=1.02859
% INFO    : Gen at bus 85	: Pg=0.0, Qg=23.0 -> Pg=0.0, Qg=23.0
% INFO    : Gen at bus 85	: Vg=1.04907 -> Vg=1.04126
% INFO    : Gen at bus 87	: Pg=0.0, Qg=4.0 -> Pg=0.0, Qg=4.0
% INFO    : Gen at bus 87	: Vg=1.05481 -> Vg=1.04686
% INFO    : Gen at bus 89	: Pg=568.006, Qg=-31.563 -> Pg=563.794, Qg=-14.559
% INFO    : Gen at bus 89	: Vg=1.06 -> Vg=1.06
% INFO    : Gen at bus 90	: Pg=0.0, Qg=76.214 -> Pg=0.0, Qg=75.568
% INFO    : Gen at bus 90	: Vg=1.05126 -> Vg=1.05198
% INFO    : Gen at bus 91	: Pg=0.0, Qg=-8.924 -> Pg=0.0, Qg=-2.765
% INFO    : Gen at bus 91	: Vg=1.04436 -> Vg=1.04655
% INFO    : Gen at bus 92	: Pg=0.0, Qg=-3.0 -> Pg=0.0, Qg=9.0
% INFO    : Gen at bus 92	: Vg=1.04495 -> Vg=1.04185
% INFO    : Gen at bus 99	: Pg=0.0, Qg=-0.197 -> Pg=0.0, Qg=-2.593
% INFO    : Gen at bus 99	: Vg=1.0516 -> Vg=1.02883
% INFO    : Gen at bus 100	: Pg=186.388, Qg=49.802 -> Pg=147.911, Qg=62.03
% INFO    : Gen at bus 100	: Vg=1.05328 -> Vg=1.03698
% INFO    : Gen at bus 103	: Pg=98.0, Qg=29.959 -> Pg=98.0, Qg=32.139
% INFO    : Gen at bus 103	: Vg=1.05037 -> Vg=1.0344
% INFO    : Gen at bus 104	: Pg=0.0, Qg=23.0 -> Pg=0.0, Qg=23.0
% INFO    : Gen at bus 104	: Vg=1.03709 -> Vg=1.02039
% INFO    : Gen at bus 105	: Pg=0.0, Qg=23.0 -> Pg=0.0, Qg=23.0
% INFO    : Gen at bus 105	: Vg=1.03457 -> Vg=1.0178
% INFO    : Gen at bus 107	: Pg=0.0, Qg=7.005 -> Pg=0.0, Qg=8.169
% INFO    : Gen at bus 107	: Vg=1.02208 -> Vg=1.00581
% INFO    : Gen at bus 110	: Pg=0.0, Qg=23.0 -> Pg=0.0, Qg=23.0
% INFO    : Gen at bus 110	: Vg=1.0232 -> Vg=1.00671
% INFO    : Gen at bus 111	: Pg=0.0, Qg=3.173 -> Pg=0.0, Qg=3.727
% INFO    : Gen at bus 111	: Vg=1.02631 -> Vg=1.01025
% INFO    : Gen at bus 112	: Pg=0.0, Qg=16.399 -> Pg=0.0, Qg=17.044
% INFO    : Gen at bus 112	: Vg=1.00975 -> Vg=0.99334
% INFO    : Gen at bus 113	: Pg=0.0, Qg=-3.977 -> Pg=0.0, Qg=32.639
% INFO    : Gen at bus 113	: Vg=1.05698 -> Vg=1.05863
% INFO    : Gen at bus 116	: Pg=0.0, Qg=-19.864 -> Pg=0.0, Qg=302.358
% INFO    : Gen at bus 116	: Vg=1.01953 -> Vg=1.04932
% INFO    : 
% INFO    : === Writing Matpower Case File Notes ===
